**$ENCRYPTED_LIB
**$INTERFACE
*$
* TPS62901
*****************************************************************************
* (C) Copyright 2021 Texas Instruments Incorporated. All rights reserved.                                            
*****************************************************************************
** This model is designed as an aid for customers of Texas Instruments.
** TI and its licensors and suppliers make no warranties, either expressed
** or implied, with respect to this model, including the warranties of 
** merchantability or fitness for a particular purpose.  The model is
** provided solely on an "as is" basis.  The entire risk as to its quality
** and performance is with the customer
*****************************************************************************
*
* This model is subject to change without notice. Texas Instruments
* Incorporated is not responsible for updating this model.
*
*****************************************************************************
*
** Released by: Texas Instruments Inc.
* Part: TPS62901
* Date: 29SEP2021
* Model Type: TRANSIENT
* Simulator: PSPICE
* Simulator Version: 17.4-2019 S019
* EVM Order Number: TPS62901EVM-069
* EVM Users Guide: SNVU745A – JANUARY 2021 – REVISED MAY 2021
* Datasheet: SLVSFS7 – MARCH 2021 
* Topologies Supported: Buck, Inverting Buck Boost
*
* Model Version: Final 1.00
*
*****************************************************************************
*
* Updates:
*
* Final 1.00
* Release to Web.
*
*****************************************************************************
*
* Model Usage Notes:
* A. Features have been modelled
*	1. 	Output Voltage Setting
*	2. 	Internal Fixed Soft-Start and External Adjustable Soft-start
*	3. 	Frequency and Operation Mode Selection
*	4. 	High-side FET Current Limit
*	5.  Low-side FET Current Limit
*	6.	Low-side FET Sink Current Limit
*	7. 	Power Good
*	8.  Output Voltage Discharge
*	9.  UVLO Protection
*
* B. Features have not been modelled
*	1. Operating Quiescent Current
*   2. Shutdown Current 
*   3. Temperature dependent characteristics
*
*****************************************************************************
.SUBCKT TPS62901_TRANS EN FB_VSET GND MODE_SCONF PG SS_TR SW VIN VOS  
$CDNENCSTART_ADV2
17f62b1fb318c25603aeb85644ae98a5d179ef807807791f6459efacb9d7ffc37a831b146dc0f06bb1ef275619162e6d8f7ad0dc708bf15ae1a1d5bd0ae623b2
64bbdaf618a56e35192f2e76f6e51d8bab0faf0747dbd91520376af51ef3831257940a0859b0c62a1c5a56ebb645213ec3899f052a8ae0b1b06c263d33af34a2
da44046b6912afd1a892bcf61e04d9ccd04ca8bfbbab6362ad4ca7da36b36ea6d31f9f645250243a4b1f966cab866aa8e89c24f8ab183d13547cb2da65937e56
e943f30e6cbb21aedcb3dde7361e815a6af272e35aa7f174f090bd497e0af4951f7ea5103c79dc4043076fc915d59fadf08a853ed68f82ca00ed520c61536367
92fed72ee9442715d6d636aa992765d3db98e663563488947c182dd1a6a155570f4af028428e1be5d0cfddc4f9882005a8676f5ab3acb0af7e0d38f05726f947
e414eb50faaa4423aaf01163bba9a9d8f264ffd4f2234c4bd8e88bb2fce47137e3d2c334a45d646cad6f24109d7e15e4cbe0dbceefa3dff1439fab79cada45df
a62d5d1253ef5ba4483f4756e2621d74e813e2bcab2dd1b1a61b21c37696f2bbad6c5154681990b4b4e594c75b7f9d1423638742f5ef8aff2dc4da2e03abadf5
ae8d8d0974fe579d33d2de1611ea0a5a20978b1e9d6865a0cd6f7abb5c2949f2d62ca09606d530081a2144f827e5a84da8676f5ab3acb0af7e0d38f05726f947
21804b80c8b796e17c105d35a54eae16f264ffd4f2234c4bd8e88bb2fce47137e3d2c334a45d646cad6f24109d7e15e4cbe0dbceefa3dff1439fab79cada45df
8cca26cafdd354c51b7e9d8c19343c8d29cfed6f1462fd083911c235f9cbd6eaeb88781fb8cf7a9da963f16d796065b0820db98a17b5a8d048901e66c024a85d
92fed72ee9442715d6d636aa992765d36b168fa5dde410ee7e63a6dab2d50f535fa2898abfb386ab0485303f907f6e41af6993144502aeca109446f6c425fbc0
161fb1c15a10c70bdda66b9becc76916a055e54fce39df03f1321b590412abe29bfc1359d7132b94d3a030fc6006304b161636e15507bffece002bfbb520dc25
ae8d8d0974fe579d33d2de1611ea0a5a2ddd001d671d7b43240e339550765b63d62ca09606d530081a2144f827e5a84ddc0e2c129b6bb96386a2c17f45f35149
099816ecfa5aa1011bedb9fe4eb7959af264ffd4f2234c4bd8e88bb2fce47137e3d2c334a45d646cad6f24109d7e15e4cbe0dbceefa3dff1439fab79cada45df
8cca26cafdd354c51b7e9d8c19343c8d29cfed6f1462fd083911c235f9cbd6eaad7a8bc13c778b4d2a35ca4a4d4cf772820db98a17b5a8d048901e66c024a85d
f3dd69fba62a8446e73852ae5e0844894fa429438df0ab27bcb1f6c990e9c1524d024186df50e083a8e3fd0f2ab024ffacab705deabcba9fe74e6519a15a87b2
25b1a46f6e83b6b3a53244be8abe238d326b2439892255b5d5026157a54ae5eee3d2c334a45d646cad6f24109d7e15e4cbe0dbceefa3dff1439fab79cada45df
d233298b6d2f51c140d496bce9d8098e9c22414f099f8bbd2343d16cf63d6ce3d5cff24f9b2586c3ae14ed0f50a2a8de3c6411bbb7259e02611b63820fe588d6
ae8d8d0974fe579d33d2de1611ea0a5a4d7c3e663816aa3eed41cf5e4c9e6b70d62ca09606d530081a2144f827e5a84d531b05fc18889747acbe2f687cefec9b
ca1fba93df0bfe4013253b0ab9673783c6b8d343b3fc3d7505c65f9607983fe843c29714fcbb561c7b83debd571d6ecdcc2cebb87d4cf070f3a9cea766049255
3da0bc165ba828cd620d6e323ca340f6c38cda3484b23830038534f1d6e5bcae922cfec5c3f60c6757e56bf93e8299d6f4a11c7ca4cedede70eb1fd60517aa11
b653f88ee0f10232afeef37bde5ea661a055e54fce39df03f1321b590412abe29bfc1359d7132b94d3a030fc6006304b161636e15507bffece002bfbb520dc25
9250fd9624c4f6a685a79356e7920649bb31c242c891b2e75ed3ed193318b5ae5fa2898abfb386ab0485303f907f6e410ef409898409265cea11a6c4866f0b60
3b0e1bff98353509d1299b92e30c40fd1f5a62101d2ed4e51ebddd72f24c74b5b533901dd92ea7838b36acb460c0dcef4d4d3e149c532f4eaa18f945276b41aa
e34185490a23693cca0382ba76101e931731d314fd5319431ea75b93ba0a5b893b5706341e36bcdb19d79c16da151078bb278d2b3c3f126e35fef829b5ef000e
f3dd69fba62a8446e73852ae5e08448989d5a663be9d78fb5f030c7376f8146a4d024186df50e083a8e3fd0f2ab024ffacab705deabcba9fe74e6519a15a87b2
1a2b167847f8a6acc065879ef5e0f41819b8163773a5a97b8abf9ddfb1f49745c2ad1db92dacfdda60a34081f21489d62534d2955a4d440bbb40229a6b9cf366
d233298b6d2f51c140d496bce9d8098e9c22414f099f8bbd2343d16cf63d6ce39abf08c5c7315607019f2bc5b2f1f7873c6411bbb7259e02611b63820fe588d6
d18fba99daf943857da51a903ce6af7abe7c0d5a5bc098735b4facbbd50dd02c5fa2898abfb386ab0485303f907f6e410ef409898409265cea11a6c4866f0b60
3b0e1bff98353509d1299b92e30c40fd1f5a62101d2ed4e51ebddd72f24c74b5b533901dd92ea7838b36acb460c0dcef4d4d3e149c532f4eaa18f945276b41aa
e34185490a23693cca0382ba76101e931731d314fd5319431ea75b93ba0a5b896052847fc06447504aeb4bc3ba2aefa1a8c8d2fc48a18fe10e099bd2bbc39588
ae8d8d0974fe579d33d2de1611ea0a5abba3f503239bf0ee659f16476c9b18645fa2898abfb386ab0485303f907f6e41af6993144502aeca109446f6c425fbc0
8773dbf8c5c1c431ebdec10a34bab6d6c6b8d343b3fc3d7505c65f9607983fe843c29714fcbb561c7b83debd571d6ecdcc2cebb87d4cf070f3a9cea766049255
5cca0ce0263b1e7e69ab84f6a0940433e5cf070a3d3e38d09112e2d0d8e739a8698269638ff002c06dac56f5c0acb7a29f3b2d5907ddb52b20a4058032eb4163
9250fd9624c4f6a685a79356e7920649c9fa16092cb021e5d42280eb2462f4f25fa2898abfb386ab0485303f907f6e41af6993144502aeca109446f6c425fbc0
12660f9cf3cc4f0810189330d03f7c2c3b333d8055995e8836a45faaf5c6513974239bcdd5f2b520822bfca27cd625d5b366c254fdfaa7256947a7e7d2dc091a
e34185490a23693cca0382ba76101e931731d314fd5319431ea75b93ba0a5b8924fefda825d69eeb6cd23ef4cd4f220537efda414e106febaca4344722c03ba6
d18fba99daf943857da51a903ce6af7a22c4d22468cd9d312c211120ea2615855fa2898abfb386ab0485303f907f6e41af6993144502aeca109446f6c425fbc0
aa9b627bfa86c5c8bf157698fd68a7ef3b333d8055995e8836a45faaf5c6513974239bcdd5f2b520822bfca27cd625d5b366c254fdfaa7256947a7e7d2dc091a
e34185490a23693cca0382ba76101e931731d314fd5319431ea75b93ba0a5b898e610762776e881c51a4a81afdf536d1a8c8d2fc48a18fe10e099bd2bbc39588
ae8d8d0974fe579d33d2de1611ea0a5a4a37bcc8107b231cd1f3a54219824a1fd62ca09606d530081a2144f827e5a84d23fb9e65fe4879541fb8b90b6f905f5e
07081a6af963a0734f1351159511d09d19b8163773a5a97b8abf9ddfb1f49745c2ad1db92dacfdda60a34081f21489d62534d2955a4d440bbb40229a6b9cf366
543bfe2da24cc14da75661a0e9ca8d23cf6e69acf09d536b70f637b67acb4bbc4fbaa92f04d39063c02f15c828191c8b983e0932e6d84ab7b54759c23e467805
66610266f4df2dc1a48513b76fc006b0cf6e69acf09d536b70f637b67acb4bbc655f176ba8e866977f3edc3fc74e843d6e4f46f5efd61068e373ea6dc7c89d94
e46c38969cee17cc560cacc4433d9e4d9223609ccd82f32dfd2e46f5af7d09664b60970951c52f6968a8631771084f3be89c24f8ab183d13547cb2da65937e56
7839e7723052be07e95ca6311426ef70a779d7cae6306014c257945f9f12e608b9ac630ae7ae636b595a550df30a3dd4a5357a67eb747bcc5c78130e6e457ff9
16b22b42c769fab0d79e5f9e6b37197e19b8163773a5a97b8abf9ddfb1f49745c2ad1db92dacfdda60a34081f21489d62534d2955a4d440bbb40229a6b9cf366
01737b38fa8337d61e38581e5da0dbe0a7b7bfbd14990d2a062155765a90f07914174cdc6c4daa276fbea62607ee627ef3239ed35c3433e67f3b8f3d1af089bc
1c74fc3aaa5df95b64bac327f37e00ff6f0ef2eb6c232eeb49c6ef64e7f06c120d03bba8907f3e47108f3bf5e5e5e1211b30ef67167651dc9c088030d33b52ab
8201414a0810d3989f33fda4c39c4e5096980b54ef48b110b86e52d99a0abf9e5546ae64ce15c785f41dd3cd8591a728e9f4957453c1079cfd69debc39cb5ec5
0c7ec31c27510e460c8e3a1cd61fe350903cab1427ec33330a17d4564587448e98937786a4c7131ce3c29aee5f0af993669e2d8920ae9ff40b34d75141a8b8b7
f7acd9e959956716342347a1226b3ebb3edfd76869cdefe1e3684bf1eabd3af1777c0da6f860f1c5cf436b0797589637706008aa7b1b4bb0e038398f7660b785
e3a6c8b698b3a7b5dcd17ec6ea913d50e0ebd5a98d9c08daccf49883c5791eb6c2a4ba08a01a5a190f2a182c9e2ae8e8b6dee7d1b406db17f52b73cc13617e73
4813b522e5ff1f17192148a76b2b305319b8163773a5a97b8abf9ddfb1f49745c2ad1db92dacfdda60a34081f21489d62534d2955a4d440bbb40229a6b9cf366
a1b8d113324e72d0bab36e3f9815c0c40771e87bfc4ad0ddb4805b2c2015e22e40467f5c050d980ae01f7681056e16293549b8a58e38ae642d5e645581998d1a
582d7719580acb4c515c86c45ae34764b6da07a26154e60a6bb13c09fffc9251d240e9df2a4c7a7867d198076e93bb707ff5feabac95d15004caebc2cb91ad59
4282ead969e1fd37bf3fe784158fe99daabfc83ba94b98c60c813b699d4a8d931f7ea5103c79dc4043076fc915d59fad5b40e8a568b2a20af6a0e3d58a844e77
60ec234c1a01b58b7f60818b8843f1655e1b67c790ff7e49566b08a2a2ea41d8d31f9f645250243a4b1f966cab866aa8e89c24f8ab183d13547cb2da65937e56
a8c9d922f3f0cc2f7ccfdf7ba3b2301b2683a40e566ea6b13294d87c88560765058726edcb86e93eae5a728ca1eab3be1b30ef67167651dc9c088030d33b52ab
8201414a0810d3989f33fda4c39c4e5096980b54ef48b110b86e52d99a0abf9e5546ae64ce15c785f41dd3cd8591a728e9f4957453c1079cfd69debc39cb5ec5
0c7ec31c27510e460c8e3a1cd61fe350903cab1427ec33330a17d4564587448e98937786a4c7131ce3c29aee5f0af993669e2d8920ae9ff40b34d75141a8b8b7
33840009899b885f062464a9dc7467b4a779d7cae6306014c257945f9f12e608f22333addb908f613228097073ca191a8d32118926165a238a7ea19b87e310fe
16b22b42c769fab0d79e5f9e6b37197e19b8163773a5a97b8abf9ddfb1f49745c2ad1db92dacfdda60a34081f21489d62534d2955a4d440bbb40229a6b9cf366
01737b38fa8337d61e38581e5da0dbe0a7b7bfbd14990d2a062155765a90f07914174cdc6c4daa276fbea62607ee627ef3239ed35c3433e67f3b8f3d1af089bc
29800a726ae4ac17eb806280a216d0e3de698b7887da402291da9056b1a33f15a5c9bf8b75395c8041b0ffd7383acb152652e524fc1cd247a2d6b19038754658
efa6c737278f40088fe277fb2f4b45aa4f378c4bda575dea9c652ca1980b5832765463435329a44d44e981840bf80ebc7ff5feabac95d15004caebc2cb91ad59
54b9f3f9897eb699d99dd0a24de4f0376d58fbb9fbb0c9772a65aeb53db6ce859bdd48992b231960b9bec579761ffa98e85cdee79316879a95a1d68ef4e24598
c08beddff008a6941b9b212a9383ea89df90204d990dc9d6a90cf7372edbf1d76be0e296be8104c952530544d05612b3e89c24f8ab183d13547cb2da65937e56
0a0662f1a89d68a80d7438c313dfe8f81047fe6d83dfaeca3c3b98d218fac05917df91c56b9f1d02068c2df7d5d9e09478ec588c38fba11857deeac9df0bb622
3cb480b2969838a8f0d4a31e4f6933878f07989ec07df841aa26f201bfea57bf1af46cba62fe7b5c886806dc9a7c0b37f8deac4b9a3089aaf1f71a21de957f13
a1b8d113324e72d0bab36e3f9815c0c40771e87bfc4ad0ddb4805b2c2015e22e40467f5c050d980ae01f7681056e16293549b8a58e38ae642d5e645581998d1a
6af2c0c08d2e96450ec9de81effffca2d6b60aa5b700f33f100b6b2153b8b78106c780320e3ff2a447cb687f2a488f6b78ec588c38fba11857deeac9df0bb622
3cb480b2969838a8f0d4a31e4f6933878f07989ec07df841aa26f201bfea57bf1af46cba62fe7b5c886806dc9a7c0b37f8deac4b9a3089aaf1f71a21de957f13
a1b8d113324e72d0bab36e3f9815c0c40771e87bfc4ad0ddb4805b2c2015e22e40467f5c050d980ae01f7681056e16293549b8a58e38ae642d5e645581998d1a
744869777f691ca1f8c1a68c211dfafbba11ea6900c92b7dcdea07077ad8f7a0126aec27d529c3ea2bebc8af63955ce15a8f9c0f777135cc47f16a9bac0368aa
b8be7787f98ebe78281223f072e58d8fb35218607c9c56c2e05e81a0dc59657a6b1c4bffbe9f2a320048c4740294885a59df614847f59d152c3b74e3e256e488
c23d7c386f2c61e4d7e6bb3b5c9a37881d29ca061c088832804b76bb25ee0bce009db3efbbfa6ceefc2eb617564a7712e5fae8c24d4d7c24eed123cd96c49700
92fed72ee9442715d6d636aa992765d30c4484bc3070013d9a9d3de55363953eedb6bf904b395d4e3dc5f01a6824642a322b847e21721b36520d3c438f19dc94
a9487c00aa958c98cb7e9fd71c5f1107a055e54fce39df03f1321b590412abe29bfc1359d7132b94d3a030fc6006304b161636e15507bffece002bfbb520dc25
a62d5d1253ef5ba4483f4756e2621d74e813e2bcab2dd1b1a61b21c37696f2bbad6c5154681990b4b4e594c75b7f9d1423638742f5ef8aff2dc4da2e03abadf5
ae8d8d0974fe579d33d2de1611ea0a5af8be915d6a8fe28038e645d453bf81ac266b041b63179b22e010fd3fdc2a4396322b847e21721b36520d3c438f19dc94
c24eb70ff845d5ef321df0a2937c0fe1c6b8d343b3fc3d7505c65f9607983fe843c29714fcbb561c7b83debd571d6ecdcc2cebb87d4cf070f3a9cea766049255
3da0bc165ba828cd620d6e323ca340f69bab19909e08e60ed7fb73fd336e470aa58d912ebc22c935f093d8af253101f65bfa4405354c864f5f885f0e485c0ce0
92fed72ee9442715d6d636aa992765d30008a679ccf1f326564baac71565209ec7c014b982317023268d8bc264eadf2a01588d805387c986fc7ceca12d724941
defd39422255146daea0b315e0ef0e2419b8163773a5a97b8abf9ddfb1f49745c2ad1db92dacfdda60a34081f21489d62534d2955a4d440bbb40229a6b9cf366
ae8d8d0974fe579d33d2de1611ea0a5a2912abeb8f17dd0cc3125429a9376804266b041b63179b22e010fd3fdc2a439639a4070c51c06f2907a3e1bf791f2507
6ca6f6fe09f1bff4417b9920298afa7ec6b8d343b3fc3d7505c65f9607983fe843c29714fcbb561c7b83debd571d6ecdcc2cebb87d4cf070f3a9cea766049255
3da0bc165ba828cd620d6e323ca340f69bab19909e08e60ed7fb73fd336e470aba4bfd05afd6df5c7963d3059aebea0c5bfa4405354c864f5f885f0e485c0ce0
f3dd69fba62a8446e73852ae5e08448980ae176d9306106d68a4de84a607fdde414a71be03d104198bd863c0471258e3943feb60f3b9a6963f0fa0ea8149485a
f1da2fbc31a126556bdb67623743377de813e2bcab2dd1b1a61b21c37696f2bbad6c5154681990b4b4e594c75b7f9d1423638742f5ef8aff2dc4da2e03abadf5
8ba2ad78c6739b9adc99579d7a47e0abdeb5bd88b5c2c872952cae236a2c5fb2414a71be03d104198bd863c0471258e39385b5b23b24831f6d537bef57dc2823
ae8d8d0974fe579d33d2de1611ea0a5a8541a29ac7226e57e02b54418406218b266b041b63179b22e010fd3fdc2a4396d755e8185688fbe415a31d75b2259f07
120c2b6b77978f8ffc8a1fe85f8d3d070771e87bfc4ad0ddb4805b2c2015e22e40467f5c050d980ae01f7681056e16293549b8a58e38ae642d5e645581998d1a
3da0bc165ba828cd620d6e323ca340f6e60e19a3a4fd6e4995ad6ca516dd00a09c2fac7a743899a2c16f935e0ee34696d657654161060d6f1db6b99eb6e88cf5
c48df91c15d3048ed8b05b4aa2dd62d20771e87bfc4ad0ddb4805b2c2015e22e40467f5c050d980ae01f7681056e16293549b8a58e38ae642d5e645581998d1a
9250fd9624c4f6a685a79356e7920649a6b572694907397dc40a5c7adbd5e009c7c014b982317023268d8bc264eadf2aa4b04fab23465a9679f804feb36c5ef3
e1c7a356339eb6e6f20e759da2f1c875f6800230dc14cc3466104b79566dae7114a89c42d99bed47119c0c83f38cc27e9c7b02982e3c6fa511975cc1e40650af
e34185490a23693cca0382ba76101e936f9a7bb17498e0cb46fb8bcf0c601aa1e3ddf0aa393337e480c4bcb7bd195f9ddc2d1797b7d4047255a2e4942be2ca39
f3dd69fba62a8446e73852ae5e08448970684aee8351b5b548cca2eb4c05d21d414a71be03d104198bd863c0471258e3943feb60f3b9a6963f0fa0ea8149485a
8805897d586ef1fea33c65f3b3aa8e3d903cab1427ec33330a17d4564587448e98937786a4c7131ce3c29aee5f0af993669e2d8920ae9ff40b34d75141a8b8b7
d233298b6d2f51c140d496bce9d8098e9c22414f099f8bbd2343d16cf63d6ce30d8372c0ad1d2d6090471d45c9711b312652e524fc1cd247a2d6b19038754658
d18fba99daf943857da51a903ce6af7a189b7c149aea4c91f546a7525bb29486c7c014b982317023268d8bc264eadf2aa4b04fab23465a9679f804feb36c5ef3
e1c7a356339eb6e6f20e759da2f1c875f6800230dc14cc3466104b79566dae7114a89c42d99bed47119c0c83f38cc27e9c7b02982e3c6fa511975cc1e40650af
e34185490a23693cca0382ba76101e936f9a7bb17498e0cb46fb8bcf0c601aa1c6d88e59b246c1a0a1e65b6477aac40e4b1c21cc35c2a718cd289136d92b8d26
ae8d8d0974fe579d33d2de1611ea0a5a8dd6392df2e05ac80428358957488880c7c014b982317023268d8bc264eadf2a01588d805387c986fc7ceca12d724941
23ca0b046994b5f836b94a35843f1301c6b8d343b3fc3d7505c65f9607983fe843c29714fcbb561c7b83debd571d6ecdcc2cebb87d4cf070f3a9cea766049255
9250fd9624c4f6a685a79356e7920649753e849c0f1c520e00c85de4e06312ddc7c014b982317023268d8bc264eadf2a01588d805387c986fc7ceca12d724941
44e6ac5795e1026c3399044d93ae1d42e5cf070a3d3e38d09112e2d0d8e739a8698269638ff002c06dac56f5c0acb7a29f3b2d5907ddb52b20a4058032eb4163
e34185490a23693cca0382ba76101e936f9a7bb17498e0cb46fb8bcf0c601aa13eb635fbafedb5874f24bae619db7dbc87e122723e6b398c2cd1187772c799b7
d18fba99daf943857da51a903ce6af7a1b542b0b75f8ce95a12072f77735a9eac7c014b982317023268d8bc264eadf2a01588d805387c986fc7ceca12d724941
43ccaad3d44539dffa10da515e681a8ae5cf070a3d3e38d09112e2d0d8e739a8698269638ff002c06dac56f5c0acb7a29f3b2d5907ddb52b20a4058032eb4163
e34185490a23693cca0382ba76101e936f9a7bb17498e0cb46fb8bcf0c601aa1a041251d0cb184fb706ceedbfa976ca54b1c21cc35c2a718cd289136d92b8d26
ae8d8d0974fe579d33d2de1611ea0a5a7da9ed170a5388c8520c2142cdb20a27266b041b63179b22e010fd3fdc2a439662f668a5051d8e948a5ab1eb244d440f
b24e5e03778ff4d6c97482b84edc2999fa10026cf68745bdfe41a6ed378e8737e3d2c334a45d646cad6f24109d7e15e4cbe0dbceefa3dff1439fab79cada45df
1b377c5c3f71a942d4c10f7e08e540ef2654b3154b8ce1531018a36ad70034f788c1ed341d04af1f919bf47391ae5129c3899f052a8ae0b1b06c263d33af34a2
66610266f4df2dc1a48513b76fc006b0cf6e69acf09d536b70f637b67acb4bbc19581a8ab355e97b0e0860ead72d36cb820db98a17b5a8d048901e66c024a85d
f5b585b9c7353e37c3e8b582425f5854583f79b9018d1a0753ff5572e680cb25d240e9df2a4c7a7867d198076e93bb707ff5feabac95d15004caebc2cb91ad59
46bcd1443edd044df0fb7498b16a9e43b7dc23a54983265166c4854fc1c0112b73eb885fbba127004ed0ec140f6eee1a79f041d04601965d8d5a364f3d5f465b
bec1ae739da0a9f752c7d3072a5aaf1d29bf4e06390715908607bbc65f42ea3c19b8163773a5a97b8abf9ddfb1f49745e002ada0d937705fc375bbe49a108fbd
3e553f5d9ff7aaeca38383298811f9f037c4e615526746303837676104f32c2f36a408fb80d76af3924d3f0ceb03b98fc3899f052a8ae0b1b06c263d33af34a2
63d74c3a974cbca6c5a2f245e662919d74cd28b8274c6a5624c4a542a7fcbe1272a1c16ee45549968a93c83bc035b1a6ea24a8319591b4c4e75d1d39ae9b3e5e
0cacd38ccae4b50febd7e0de347cf34d903cab1427ec33330a17d4564587448e98937786a4c7131ce3c29aee5f0af993669e2d8920ae9ff40b34d75141a8b8b7
9aa1852b8f77f1a28d42dfc489b457a999e2a1d3264082c4854340334815530a9bf97e6190663c0993e06575b1411fa4498110b38c68002572b647859a44cd69
231393b3c3b3f0cf85479345bf3017131ef07c929516f942d8db16753da141a9f64b8bb8856a5237fe1ec6bf0dcf53a7adcf88635ea564c93ce5c3fa8d032cd3
b38522611bb4437456649ddd56ee1a57e813e2bcab2dd1b1a61b21c37696f2bbad6c5154681990b4b4e594c75b7f9d1423638742f5ef8aff2dc4da2e03abadf5
32a671e7b9ab2eb0c614eaa895c43451657fed7918baf2abd7e772bc08b32931e813e2bcab2dd1b1a61b21c37696f2bb1f621f185d42816db3770ee9a4962ad9
b6ac457925065a1540f437f9e649a77ab1739bcfe227965982e198cd6b4c6bc0fa1b4ac65ccdb40ecd2f1501f4a3a8c039a7542e7550092f04a4abb7ace021e9
b38522611bb4437456649ddd56ee1a57e813e2bcab2dd1b1a61b21c37696f2bbad6c5154681990b4b4e594c75b7f9d1423638742f5ef8aff2dc4da2e03abadf5
32a671e7b9ab2eb0c614eaa895c43451657fed7918baf2abd7e772bc08b32931e813e2bcab2dd1b1a61b21c37696f2bb1f621f185d42816db3770ee9a4962ad9
fea1820c485ae8ba6fd14bea518db5da5c44d88688af77ad4d2bd15a0b5a9997b13278da3e79aaa0443ae7b2ee96416264286c8c26a0080c81e3899f192ef18b
dc23cff75abd2ea3cc4412f760e01962c6b8d343b3fc3d7505c65f9607983fe843c29714fcbb561c7b83debd571d6ecdcc2cebb87d4cf070f3a9cea766049255
1131759f2a1881440b08dfcb034473ad670e45163db2277f1a67f86c5ec5c9663b333d8055995e8836a45faaf5c65139bc36deb64ee321020574ad3b6ba9f6cb
4ba7838f388efdab24ea2330e8116b3a3318be021688236e11cc116d0d07e08dd8a45666e74a2f791a19ad44bcb4f14ba68e162d473e4e631ae9513a8f0266d2
936be1521c833a00b0c4d9a0376001f397461c4f286e2d54f994d996c45fcbf02bdb08fb9bce60e7a373b0151720420c3ff4ec4ca8a53969a0e6e9c1a40b8580
b5d9e53a9f66d0405684ca4e8fe0fb7719b8163773a5a97b8abf9ddfb1f49745c2ad1db92dacfdda60a34081f21489d62534d2955a4d440bbb40229a6b9cf366
32a671e7b9ab2eb0c614eaa895c43451657fed7918baf2abd7e772bc08b32931e813e2bcab2dd1b1a61b21c37696f2bb1f621f185d42816db3770ee9a4962ad9
8aa3c5f40bdcdd22979b99e3c0995ff7bc788bdfbdbdaee7ce1d70fcfd116bd60069de493153a106c34762451589514764286c8c26a0080c81e3899f192ef18b
ee22c138a0e368324b204e353266b2bc0771e87bfc4ad0ddb4805b2c2015e22e40467f5c050d980ae01f7681056e16293549b8a58e38ae642d5e645581998d1a
c90481ee0af7386efee3fdffc85162c6366450fa8ea135eca328b7a5d46f5c22f6800230dc14cc3466104b79566dae7152712989b325e35ab447d7b3ce90649e
461cde530619e2a2ad4d81ac9b0fb0ac40909056fa0998ff39a881e8e2635dfb3792103060c05e28e80f219196a98fc8ccc149bc7ec7e7d61164efc0f216abee
81fe8f5e8f6b40fb9eec6e6979a2c1e8169fefa3bfc2d8106f8dd3a15180f3c76c8c1f09d4f1a1a72fbc8533127906e3edce999201a220cfc9378c21e829c47a
8ff4546c9809bdab085e3b7210806c7ec6b8d343b3fc3d7505c65f9607983fe843c29714fcbb561c7b83debd571d6ecdcc2cebb87d4cf070f3a9cea766049255
492ee14e00fc0011b998f006244d33e5fa1e07fa8e0172c322ee19833dae49bfc6b8d343b3fc3d7505c65f9607983fe89363ddd7afbc83efd90d07e71c5c2fab
fd014281c645300c9bf223573f15427a423bf86683a2c17ca5f83fcf6a5067254fd3d474dd8b558a4a3848defdb3c26b9148dc24e45e2d97eb31626e1ea4ddbd
1401188612a38986c1bde4be3537af685328524fa9baca724b90195b5562426f3858e8875b8b1b024a10c02aa59961d4b0ae236bec0fcabd91f23d2ba02ffa2f
2bd92b68c87ce5142f4f112683fe189619b8163773a5a97b8abf9ddfb1f49745c2ad1db92dacfdda60a34081f21489d62534d2955a4d440bbb40229a6b9cf366
9aa1852b8f77f1a28d42dfc489b457a999e2a1d3264082c4854340334815530a9bf97e6190663c0993e06575b1411fa4498110b38c68002572b647859a44cd69
7996f0c047d0c95400b5fa0ad07cb1a39bb5f79405aa95602d856afb184d5e31f0fe027395d390c7991f65529698a4d780d2ac42ae5f936890f9431990b59a54
a0aa15a07a3d2d06bde916ec47b76370d9ba62c8bb1518c7e88dfac35582380519b8163773a5a97b8abf9ddfb1f49745e002ada0d937705fc375bbe49a108fbd
652348f841e35908bd9e163ee43d0ea9af9350f7eae4fb05a8a460367d016267e1b305247cadfcaaf94a5e26cdb89bd064286c8c26a0080c81e3899f192ef18b
dc23cff75abd2ea3cc4412f760e01962c6b8d343b3fc3d7505c65f9607983fe843c29714fcbb561c7b83debd571d6ecdcc2cebb87d4cf070f3a9cea766049255
1131759f2a1881440b08dfcb034473ad670e45163db2277f1a67f86c5ec5c9663b333d8055995e8836a45faaf5c65139bc36deb64ee321020574ad3b6ba9f6cb
663848c29bcdf17ed923ac5148ba82dd311048e2ad9ca665604ac3ba2d74adb32af3d64ec7f3438e673bbf475d73c02a17ce1283e0e82159a78a52ea58b4c563
32ce6ae4becf57864f932b887da1412c0771e87bfc4ad0ddb4805b2c2015e22e40467f5c050d980ae01f7681056e16293549b8a58e38ae642d5e645581998d1a
006495cf26cb0ea8e5adbf9c05c75afe74be3634e340685a3b8a92f27974de9b11a7c6a1900352e0327694bedc5fabbc9148dc24e45e2d97eb31626e1ea4ddbd
d0da68f2213af4a374d01fdacc5414084590aa301aa62515f6e28f326186d3ef37c4ad2d812d72f82f25882aaa23e755ea24a8319591b4c4e75d1d39ae9b3e5e
0cacd38ccae4b50febd7e0de347cf34d903cab1427ec33330a17d4564587448e98937786a4c7131ce3c29aee5f0af993669e2d8920ae9ff40b34d75141a8b8b7
9aa1852b8f77f1a28d42dfc489b457a999e2a1d3264082c4854340334815530a9bf97e6190663c0993e06575b1411fa4498110b38c68002572b647859a44cd69
d9f1f4e9ae04d2c2bc8ba806d700c26f30ae557b2413d79ff4487c5ea86061aba055e54fce39df03f1321b590412abe2abae7c77b26de0d708774638464c71af
41c6916aed2a6ecc29c90ab59c8fc6cf97461c4f286e2d54f994d996c45fcbf0d31c0c0f554bfd5b8697c0f5fa8873a68f52ebdfe5bf56864fd386e800f641f9
44a1dd23e937c6b9353bb68c4a6a41f5e2d5503ae4fefc938ecd6819867ae6c90f34767bff4a3d6567b79c25d1e3be6e9a84411f8c0dd904a5b2443ed4581d0f
5b1912027c2a9dd8a054c441f849f470903cab1427ec33330a17d4564587448e98937786a4c7131ce3c29aee5f0af993669e2d8920ae9ff40b34d75141a8b8b7
910301d70f931d569b3b3d67721bb545f54bc928173a667691ffc7f82632856599e2a1d3264082c4854340334815530af3239ed35c3433e67f3b8f3d1af089bc
7abaf1147ed17fb74bb8d6f8825e4d25d784d758f3be98ba1866b3498f7559d9450d82e1198a9878ff84ae2944500e7264286c8c26a0080c81e3899f192ef18b
dc23cff75abd2ea3cc4412f760e01962c6b8d343b3fc3d7505c65f9607983fe843c29714fcbb561c7b83debd571d6ecdcc2cebb87d4cf070f3a9cea766049255
1131759f2a1881440b08dfcb034473ad670e45163db2277f1a67f86c5ec5c9663b333d8055995e8836a45faaf5c65139bc36deb64ee321020574ad3b6ba9f6cb
dc58dea241f36203a7f36166227d88f77d55cff6b07b7f3090f380ecec7683d7d81d0035ffbece8357d8284506c3de91c71f220ba9f0b4d89ae192902f1271b8
870e1aead6b8f166635a2371077b48a7eebfe4729ea4e00565efb5019872659be3d2c334a45d646cad6f24109d7e15e4cbe0dbceefa3dff1439fab79cada45df
9aa1852b8f77f1a28d42dfc489b457a999e2a1d3264082c4854340334815530a9bf97e6190663c0993e06575b1411fa4498110b38c68002572b647859a44cd69
e0cfcc903a8852881985821941098f950fe37a2c95229ae40970b7e79ed50941f2154bc4c3bc6a02b51a2415e3615f501b30ef67167651dc9c088030d33b52ab
34542a95700f177f65591a90110ce7c9e813e2bcab2dd1b1a61b21c37696f2bbad6c5154681990b4b4e594c75b7f9d1423638742f5ef8aff2dc4da2e03abadf5
0c7ec31c27510e460c8e3a1cd61fe350903cab1427ec33330a17d4564587448e98937786a4c7131ce3c29aee5f0af993669e2d8920ae9ff40b34d75141a8b8b7
b001e931d14a260ab865c17d41b7ba9de640b689fc07f64e940c1a70be23f223b001c564d8d2f79584eb43e2bb8592d47d13698ca9ed7aea321d6f7f014cd273
29b6d4508d19104aa880209e95218939c6b8d343b3fc3d7505c65f9607983fe843c29714fcbb561c7b83debd571d6ecdcc2cebb87d4cf070f3a9cea766049255
9aa1852b8f77f1a28d42dfc489b457a999e2a1d3264082c4854340334815530a9bf97e6190663c0993e06575b1411fa4498110b38c68002572b647859a44cd69
68bfade80e14ce160613497bb2c9322e2b0d1277d379f9c2aefabaf4fd273a89f44da0d7bbe02ec579e53b5fe97850aaea24a8319591b4c4e75d1d39ae9b3e5e
0cacd38ccae4b50febd7e0de347cf34d903cab1427ec33330a17d4564587448e98937786a4c7131ce3c29aee5f0af993669e2d8920ae9ff40b34d75141a8b8b7
9aa1852b8f77f1a28d42dfc489b457a999e2a1d3264082c4854340334815530a9bf97e6190663c0993e06575b1411fa4498110b38c68002572b647859a44cd69
c5206f5df7d204caae8a7192b4b2e2b21098d1237a2d93d7a1df5cda82328672a1ffc87e7539feff18fe48a895f05f1835fd227a246c3d02a01d38ec292f518a
7bdff28f5ed47ab0ada2cbc6ab8f19e6e5cf070a3d3e38d09112e2d0d8e739a8698269638ff002c06dac56f5c0acb7a29f3b2d5907ddb52b20a4058032eb4163
c5509b48ae466f28bb8e729977113e92c1fd87670312907d401965c5ab036cf67f4fe02a61bab7e269c9dc8a7ef387626fcbac35906bded0e31bceef29842b5b
3edca03b880b63ff5deb383791b05fdd21a35ab74a98dd9aa7d92cd4b3828f781024d2ba2296c6c93a44645a5cf1a812a9d1ebbc5404e21841a41865073ceafe
93f80fe3a81845510ac8bcea163dd640f6800230dc14cc3466104b79566dae7114a89c42d99bed47119c0c83f38cc27e9c7b02982e3c6fa511975cc1e40650af
04384cf93763023e249b39eeeca98d7fedeab14b0e9a41fa98371993128cad9549ee147b7914d76522a3e5775877e7f44c40d01763285334102014ed56dde5c8
3d45c17a5f4798d8b7f9a089ac7074fa9bf97e6190663c0993e06575b1411fa428b0d33e30dd6054a107ca68cb296ca8e5c09a2b1fc188d72ebbb90ab3f1debd
d374f2639c5edccbfac9d8deb692b19ef9951c7688fecccb0962da81d0c2999ebb81c0cec9215a20135109337369169e113440c4a5e7808ffed37ba498e93ee5
6497d3d89172ea547b03de2a8a3d457f8f07989ec07df841aa26f201bfea57bf1af46cba62fe7b5c886806dc9a7c0b37f8deac4b9a3089aaf1f71a21de957f13
d66ad60f547e188a7c868a8906697da13e6b32f4168becef26fb020374d9e8b69729867017a3fd706db0e9a11b2aeb3496e905a61a8396106d9c73dd9692bcb5
8b61a7191250e9c9b922ec1c7bba73e296980b54ef48b110b86e52d99a0abf9e5546ae64ce15c785f41dd3cd8591a728e9f4957453c1079cfd69debc39cb5ec5
0c7ec31c27510e460c8e3a1cd61fe350903cab1427ec33330a17d4564587448e98937786a4c7131ce3c29aee5f0af993669e2d8920ae9ff40b34d75141a8b8b7
ba4c27b7ebe83b6cc855c4289e3b686f3551689a03768feea2a13cc5f0da54011024d2ba2296c6c93a44645a5cf1a81204dc3ed8c6d43ce864bd09c91f7ad120
93f80fe3a81845510ac8bcea163dd640f6800230dc14cc3466104b79566dae7114a89c42d99bed47119c0c83f38cc27e9c7b02982e3c6fa511975cc1e40650af
89fee13e2799601a86b1bd508f11994efa38188fc9ffedfe95976c77b11d8ef4786cd29738f8bf9177867cb5dc482f9013a470fe5c38ad8e78fa3a26f7ac5f71
80c1da389f7bd0926c3d0a79c37acc0ce5cf070a3d3e38d09112e2d0d8e739a8698269638ff002c06dac56f5c0acb7a29f3b2d5907ddb52b20a4058032eb4163
d374f2639c5edccbfac9d8deb692b19ef9951c7688fecccb0962da81d0c2999ebb81c0cec9215a20135109337369169e113440c4a5e7808ffed37ba498e93ee5
6497d3d89172ea547b03de2a8a3d457f8f07989ec07df841aa26f201bfea57bf1af46cba62fe7b5c886806dc9a7c0b37f8deac4b9a3089aaf1f71a21de957f13
68058865524ba58155bab4fdb1edcc712b0a8f0cfbe5e3d973419cffb5e069bb46dd8f8623efe28d3411c74895af6724797f4703785cb6c6b65e2eb6674c284a
51d2707f623b3962bdfca6c72077ae47c6b8d343b3fc3d7505c65f9607983fe843c29714fcbb561c7b83debd571d6ecdcc2cebb87d4cf070f3a9cea766049255
910301d70f931d569b3b3d67721bb545f54bc928173a667691ffc7f82632856599e2a1d3264082c4854340334815530af3239ed35c3433e67f3b8f3d1af089bc
7723a929135c7110eec11ba7f6e65b0aa9ae331c3a3addf40868ccf59fea5f1818c0a1e1ecaaf4da2b9905326d3ede442bb6adc97e585d853f8c31824b05a646
24de13e1691eee63b853aad05f44961f8f07989ec07df841aa26f201bfea57bf1af46cba62fe7b5c886806dc9a7c0b37f8deac4b9a3089aaf1f71a21de957f13
910301d70f931d569b3b3d67721bb545f54bc928173a667691ffc7f82632856599e2a1d3264082c4854340334815530af3239ed35c3433e67f3b8f3d1af089bc
4b137d96f0fadfaafc6d010937d34dc1713b175ad6f02d24840068b0c60917499bc0c7be703c853c2777c72f41ccc5e6c13f6a89d5f35df93259e1f5aecfbc3a
35330c65518e24b758634a18d3c6c10862126d1da8d40c9576c5299f3dcb969a4e16d3c58056dda74ebfc1714a8cf5a5b4ea5587936c72148d02d1504a97625c
c5509b48ae466f28bb8e729977113e92c1fd87670312907d401965c5ab036cf67f4fe02a61bab7e269c9dc8a7ef387626fcbac35906bded0e31bceef29842b5b
a17873641eab96692ca632120a2fd8843e6fcb2f521d18b02ad4c3f5e830526a5e2c1e5a44918ce14682da1b2359b3e028d369952d4e37ddba9e146dcc08c3e0
96c60b8162b8a012921f8af51bd208ee7bdb2f0660db67dbec817b0e0d4289937fcf818fddcba3aca798c049e6bf536059dc634feda8c818bc301584fad81db2
3ce0632e3853e29c985e25178e58dd721f5a62101d2ed4e51ebddd72f24c74b5b533901dd92ea7838b36acb460c0dcef4d4d3e149c532f4eaa18f945276b41aa
0c7ec31c27510e460c8e3a1cd61fe350903cab1427ec33330a17d4564587448e98937786a4c7131ce3c29aee5f0af993669e2d8920ae9ff40b34d75141a8b8b7
6937765db7b54f70c238ea42a60d2fe54f7d56226f489874be2734deaddfe47a25fb1d799f1729266d0cb666a8087ad84c40d01763285334102014ed56dde5c8
3d45c17a5f4798d8b7f9a089ac7074fa9bf97e6190663c0993e06575b1411fa428b0d33e30dd6054a107ca68cb296ca8e5c09a2b1fc188d72ebbb90ab3f1debd
d374f2639c5edccbfac9d8deb692b19ef9951c7688fecccb0962da81d0c2999ebb81c0cec9215a20135109337369169e113440c4a5e7808ffed37ba498e93ee5
6497d3d89172ea547b03de2a8a3d457f8f07989ec07df841aa26f201bfea57bf1af46cba62fe7b5c886806dc9a7c0b37f8deac4b9a3089aaf1f71a21de957f13
0c94e4fbdb3ace88be555f5c1f2c67f7c922244f8fb320c53f7a3ce71d09df275e2c1e5a44918ce14682da1b2359b3e028d369952d4e37ddba9e146dcc08c3e0